/*--------------------------------*- C++ -*----------------------------------*\
| =========                 |                                                 |
| \\      /  F ield         | OpenFOAM: The Open Source CFD Toolbox           |
|  \\    /   O peration     | Version:  v1612+                                |
|   \\  /    A nd           | Web:      www.OpenFOAM.org                      |
|    \\/     M anipulation  |                                                 |
\*---------------------------------------------------------------------------*/
/* Revit-OpenFOAM-Addin 2.1.0.2                 *\
\*---------------------------------------------------------------------------*/

FoamFile
{
	
	version		4.0;
	format		ascii;
	class		dictionary;
	location		"system";
	object		blockMeshDict;
	
}

vertices
(
	
	(-5.44277154399772 -6.69947884570691 -1.52741700683535)
	(9.56975596841928 -6.69947884570691 -1.52741700683535)
	(9.56975596841928 5.19787602740219 -1.52741700683535)
	(-5.44277154399772 5.19787602740219 -1.52741700683535)
	(-5.44277154399772 -6.69947884570691 4.2643856243106)
	(9.56975596841928 -6.69947884570691 4.2643856243106)
	(9.56975596841928 5.19787602740219 4.2643856243106)
	(-5.44277154399772 5.19787602740219 4.2643856243106)
	
);

blocks
(
	
	hex (0 1 2 3 4 5 6 7) (15 12 6)
	simpleGrading (1 1 1)
	
);

edges
(
	
	
);

boundary
(
	
	boundingBox
	{
		type		wall;
		faces
		(
			
			(0 3 2 1)
			(4 5 6 7)
			(1 2 6 5)
			(3 0 4 7)
			(0 1 5 4)
			(2 3 7 6)
			
		);
		
	}
	
);

mergePatchPair
(
	
	
);

