/*--------------------------------*- C++ -*----------------------------------*\
| =========                 |                                                 |
| \\      /  F ield         | OpenFOAM: The Open Source CFD Toolbox           |
|  \\    /   O peration     | Version:  v1612+                                |
|   \\  /    A nd           | Web:      www.OpenFOAM.org                      |
|    \\/     M anipulation  |                                                 |
\*---------------------------------------------------------------------------*/
/* Revit-OpenFOAM-Addin 2.1.0.2                 *\
\*---------------------------------------------------------------------------*/

FoamFile
{
	
	version		4.0;
	format		ascii;
	class		dictionary;
	location		"system";
	object		snappyHexMeshDict;
	
}

castellatedMesh		true;
snap		true;
addLayers		true;
geometry
{
	
	wallSTL.stl
	{
		
		type		triSurfaceMesh;
		name		wallSTL;
		wallSTL
		{
			
			regions
			{
				
				name		wallSTL;
				
			}
			
			
		}
		
		
	}
	
	Terminal_Drallauslass_Abluft_seitlich1_400_quadratisch_2_7236329.stl
	{
		
		type		triSurfaceMesh;
		name		Terminal_Drallauslass_Abluft_seitlich1_400_quadratisch_2_7236329;
		Terminal_Drallauslass_Abluft_seitlich1_400_quadratisch_2_7236329
		{
			
			regions
			{
				
				name		Terminal_Drallauslass_Abluft_seitlich1_400_quadratisch_2_7236329;
				
			}
			
			
		}
		
		
	}
	
	Terminal_Drallauslass_Abluft_seitlich1_400_quadratisch_2_7236334.stl
	{
		
		type		triSurfaceMesh;
		name		Terminal_Drallauslass_Abluft_seitlich1_400_quadratisch_2_7236334;
		Terminal_Drallauslass_Abluft_seitlich1_400_quadratisch_2_7236334
		{
			
			regions
			{
				
				name		Terminal_Drallauslass_Abluft_seitlich1_400_quadratisch_2_7236334;
				
			}
			
			
		}
		
		
	}
	
	Terminal_Drallauslass_Abluft_seitlich1_400_quadratisch_2_7236339.stl
	{
		
		type		triSurfaceMesh;
		name		Terminal_Drallauslass_Abluft_seitlich1_400_quadratisch_2_7236339;
		Terminal_Drallauslass_Abluft_seitlich1_400_quadratisch_2_7236339
		{
			
			regions
			{
				
				name		Terminal_Drallauslass_Abluft_seitlich1_400_quadratisch_2_7236339;
				
			}
			
			
		}
		
		
	}
	
	Terminal_Drallauslass_Zuluft_seitlich1_400_quadratisch_2_7236347.stl
	{
		
		type		triSurfaceMesh;
		name		Terminal_Drallauslass_Zuluft_seitlich1_400_quadratisch_2_7236347;
		Terminal_Drallauslass_Zuluft_seitlich1_400_quadratisch_2_7236347
		{
			
			regions
			{
				
				name		Terminal_Drallauslass_Zuluft_seitlich1_400_quadratisch_2_7236347;
				
			}
			
			
		}
		
		
	}
	
	Terminal_Drallauslass_Zuluft_seitlich1_400_quadratisch_2_7236421.stl
	{
		
		type		triSurfaceMesh;
		name		Terminal_Drallauslass_Zuluft_seitlich1_400_quadratisch_2_7236421;
		Terminal_Drallauslass_Zuluft_seitlich1_400_quadratisch_2_7236421
		{
			
			regions
			{
				
				name		Terminal_Drallauslass_Zuluft_seitlich1_400_quadratisch_2_7236421;
				
			}
			
			
		}
		
		
	}
	
	Terminal_Drallauslass_Zuluft_seitlich1_400_quadratisch_2_7236472.stl
	{
		
		type		triSurfaceMesh;
		name		Terminal_Drallauslass_Zuluft_seitlich1_400_quadratisch_2_7236472;
		Terminal_Drallauslass_Zuluft_seitlich1_400_quadratisch_2_7236472
		{
			
			regions
			{
				
				name		Terminal_Drallauslass_Zuluft_seitlich1_400_quadratisch_2_7236472;
				
			}
			
			
		}
		
		
	}
	
	Terminal_M_Desk_1830_x_915mm_7284587.stl
	{
		
		type		triSurfaceMesh;
		name		Terminal_M_Desk_1830_x_915mm_7284587;
		Terminal_M_Desk_1830_x_915mm_7284587
		{
			
			regions
			{
				
				name		Terminal_M_Desk_1830_x_915mm_7284587;
				
			}
			
			
		}
		
		
	}
	
	Terminal_M_Desk_1830_x_915mm_7284589.stl
	{
		
		type		triSurfaceMesh;
		name		Terminal_M_Desk_1830_x_915mm_7284589;
		Terminal_M_Desk_1830_x_915mm_7284589
		{
			
			regions
			{
				
				name		Terminal_M_Desk_1830_x_915mm_7284589;
				
			}
			
			
		}
		
		
	}
	
	Terminal_PerseusRevit_Norm_7520305.stl
	{
		
		type		triSurfaceMesh;
		name		Terminal_PerseusRevit_Norm_7520305;
		Terminal_PerseusRevit_Norm_7520305
		{
			
			regions
			{
				
				name		Terminal_PerseusRevit_Norm_7520305;
				
			}
			
			
		}
		
		
	}
	
	Terminal_PolarisFamily_Norm_7530437.stl
	{
		
		type		triSurfaceMesh;
		name		Terminal_PolarisFamily_Norm_7530437;
		Terminal_PolarisFamily_Norm_7530437
		{
			
			regions
			{
				
				name		Terminal_PolarisFamily_Norm_7530437;
				
			}
			
			
		}
		
		
	}
	
	Terminal_optischObjects_optischObjects_7532727.stl
	{
		
		type		triSurfaceMesh;
		name		Terminal_optischObjects_optischObjects_7532727;
		Terminal_optischObjects_optischObjects_7532727
		{
			
			regions
			{
				
				name		Terminal_optischObjects_optischObjects_7532727;
				
			}
			
			
		}
		
		
	}
	
	
}

castellatedMeshControls
{
	
	features
	(
		
		{
			file		wallSTL.eMesh;
			level		1;
		}
		{
			file		Terminal_Drallauslass_Abluft_seitlich1_400_quadratisch_2_7236329.eMesh;
			level		1;
		}
		{
			file		Terminal_Drallauslass_Abluft_seitlich1_400_quadratisch_2_7236334.eMesh;
			level		1;
		}
		{
			file		Terminal_Drallauslass_Abluft_seitlich1_400_quadratisch_2_7236339.eMesh;
			level		1;
		}
		{
			file		Terminal_Drallauslass_Zuluft_seitlich1_400_quadratisch_2_7236347.eMesh;
			level		1;
		}
		{
			file		Terminal_Drallauslass_Zuluft_seitlich1_400_quadratisch_2_7236421.eMesh;
			level		1;
		}
		{
			file		Terminal_Drallauslass_Zuluft_seitlich1_400_quadratisch_2_7236472.eMesh;
			level		1;
		}
		{
			file		Terminal_M_Desk_1830_x_915mm_7284587.eMesh;
			level		1;
		}
		{
			file		Terminal_M_Desk_1830_x_915mm_7284589.eMesh;
			level		1;
		}
		{
			file		Terminal_PerseusRevit_Norm_7520305.eMesh;
			level		1;
		}
		{
			file		Terminal_PolarisFamily_Norm_7530437.eMesh;
			level		1;
		}
		{
			file		Terminal_optischObjects_optischObjects_7532727.eMesh;
			level		1;
		}
		
	);
	
	maxLocalCells		100000;
	maxGlobalCells		1000000;
	minRefinementCells		10;
	maxLoadUnbalance		0.1;
	nCellsBetweenLevels		3;
	refinementSurfaces
	{
		
		wallSTL
		{
			
			level	(2 2);
			
		}
		
		Terminal_Drallauslass_Abluft_seitlich1_400_quadratisch_2_7236329
		{
			
			level	(3 3);
			patchInfo
			{
				
				type		patch;
				
			}
			
			
		}
		
		Terminal_Drallauslass_Abluft_seitlich1_400_quadratisch_2_7236334
		{
			
			level	(3 3);
			patchInfo
			{
				
				type		patch;
				
			}
			
			
		}
		
		Terminal_Drallauslass_Abluft_seitlich1_400_quadratisch_2_7236339
		{
			
			level	(3 3);
			patchInfo
			{
				
				type		patch;
				
			}
			
			
		}
		
		Terminal_Drallauslass_Zuluft_seitlich1_400_quadratisch_2_7236347
		{
			
			level	(3 3);
			patchInfo
			{
				
				type		patch;
				
			}
			
			
		}
		
		Terminal_Drallauslass_Zuluft_seitlich1_400_quadratisch_2_7236421
		{
			
			level	(3 3);
			patchInfo
			{
				
				type		patch;
				
			}
			
			
		}
		
		Terminal_Drallauslass_Zuluft_seitlich1_400_quadratisch_2_7236472
		{
			
			level	(3 3);
			patchInfo
			{
				
				type		patch;
				
			}
			
			
		}
		
		Terminal_M_Desk_1830_x_915mm_7284587
		{
			
			level	(3 3);
			
		}
		
		Terminal_M_Desk_1830_x_915mm_7284589
		{
			
			level	(3 3);
			
		}
		
		Terminal_PerseusRevit_Norm_7520305
		{
			
			level	(5 5);
			
		}
		
		Terminal_PolarisFamily_Norm_7530437
		{
			
			level	(3 3);
			
		}
		
		Terminal_optischObjects_optischObjects_7532727
		{
			
			level	(3 3);
			
		}
		
		
	}
	
	resolveFeatureAngle		180;
	refinementRegions
	{
		
		
	}
	
	locationInMesh	(1.07475616336582 1.2528759300906 0.999999999999998);
	allowFreeStandingZoneFaces		true;
	
}

snapControls
{
	
	nSmoothPatch		5;
	tolerance		5;
	nSolveIter		100;
	nRelaxIter		8;
	nFeatureSnapIter		10;
	implicitFeatureSnap		true;
	multiRegionFeatureSnap		true;
	
}

addLayersControls
{
	
	relativeSizes		true;
	layers
	{
		
		
	}
	
	expansionRatio		1.1;
	finalLayerThickness		0.7;
	minThickness		0.1;
	nGrow		0;
	featureAngle		100;
	nRelaxIter		3;
	nSmoothSurfaceNormals		1;
	nSmoothThickness		10;
	nSmoothNormals		3;
	maxFaceThicknessRatio		0.5;
	maxThicknessToMedialRatio		0.3;
	minMedianAxisAngle		130;
	nBufferCellsNoExtrude		0;
	nLayerIter		50;
	nRelaxedIter		20;
	
}

meshQualityControls
{
	
	maxNonOrtho		60;
	maxBoundarySkewness		20;
	maxInternalSkewness		4;
	maxConcave		80;
	minFlatness		0.5;
	minVol		1E-13;
	minTetQuality		1E-15;
	minArea		-1;
	minTwist		0.02;
	minDeterminant		0.001;
	minFaceWeight		0.02;
	minVolRatio		0.01;
	minTriangleTwist		-1;
	nSmoothScale		4;
	errorReduction		0.75;
	relaxed
	{
		
		maxNonOrtho		75;
		
	}
	
	
}

debug		0;
mergeTolerance		1E-06;
