/*--------------------------------*- C++ -*----------------------------------*\
| =========                 |                                                 |
| \\      /  F ield         | OpenFOAM: The Open Source CFD Toolbox           |
|  \\    /   O peration     | Version:  v1612+                                |
|   \\  /    A nd           | Web:      www.OpenFOAM.org                      |
|    \\/     M anipulation  |                                                 |
\*---------------------------------------------------------------------------*/
/* Revit-OpenFOAM-Addin 2.1.0.2                 *\
\*---------------------------------------------------------------------------*/
FoamFile
{

	version		4.0;
	format		ascii;
	class		dictionary;
	location	"system";
	object		snappyHexMeshDict;

}

castellatedMesh true;
snap            true;
addLayers       true;
geometry
{


}

castellatedMeshControls
{

    features
    (

    );

    maxLocalCells       100000;
    maxGlobalCells      100000000;
    minRefinementCells  10;
    maxLoadUnbalance    0.10;
    nCellsBetweenLevels 3;
    resolveFeatureAngle 30;
    allowFreeStandingZoneFaces true;
	refinementRegions
	{
		
		
	}


}

snapControls
{

    nSmoothPatch    3;
    tolerance       2.0;
    nSolveIter      100;
    nRelaxIter      5;
    nFeatureSnapIter 10;
    explicitFeatureSnap    false;
    multiRegionFeatureSnap false;
    implicitFeatureSnap    true;

}

addLayersControls
{

    featureAngle              100;
	layers
	{

		
	}

    slipFeatureAngle          30;
    nLayerIter                50;
    nRelaxedIter              20;
    nRelaxIter                5;
    nGrow                     0;
    nSmoothSurfaceNormals     1;
    nSmoothNormals            3;
    nSmoothThickness          10;
    maxFaceThicknessRatio     0.5;
    maxThicknessToMedialRatio 0.3;
    minMedialAxisAngle        90;
    nMedialAxisIter           10;
    nBufferCellsNoExtrude     0;
    additionalReporting       false;
//    nSmoothDisplacement       0;
//    detectExtrusionIsland     false;

}

meshQualityControls
{

	maxNonOrtho		60;
	maxBoundarySkewness		20;
	maxInternalSkewness		4;
	maxConcave		80;
	minFlatness		0.5;
	minVol		1E-13;
	minTetQuality		1E-15;
	minArea		-1;
	minTwist		0.02;
	minDeterminant		0.001;
	minFaceWeight		0.02;
	minVolRatio		0.01;
	minTriangleTwist		-1;
	nSmoothScale		4;
	errorReduction		0.75;
	relaxed
	{

		maxNonOrtho		75;
	
    }


}

debug 0;
mergeTolerance 1e-6;
