/*--------------------------------*- C++ -*----------------------------------*\
| =========                 |                                                 |
| \\      /  F ield         | OpenFOAM: The Open Source CFD Toolbox           |
|  \\    /   O peration     | Version:  v1612+                                |
|   \\  /    A nd           | Web:      www.OpenFOAM.org                      |
|    \\/     M anipulation  |                                                 |
\*---------------------------------------------------------------------------*/
/* Revit-OpenFOAM-Addin 2.1.0.2                 *\
\*---------------------------------------------------------------------------*/

FoamFile
{
	
	version		4.0;
	format		ascii;
	class		dictionary;
	location		"system";
	object		snappyHexMeshDict;
	
}

castellatedMesh		true;
snap		true;
addLayers		true;
geometry
{
	
}

castellatedMeshControls
{
	maxLocalCells		100000;
	maxGlobalCells		1000000;
	minRefinementCells		10;
	maxLoadUnbalance		0.1;
	nCellsBetweenLevels		3;
	resolveFeatureAngle		180;
	allowFreeStandingZoneFaces		true;
}

snapControls
{
	
	nSmoothPatch		5;
	tolerance		5;
	nSolveIter		100;
	nRelaxIter		8;
	nFeatureSnapIter		10;
	implicitFeatureSnap		true;
	multiRegionFeatureSnap		true;
	
}

addLayersControls
{
	
	relativeSizes		true;
	expansionRatio		1.1;
	finalLayerThickness		0.7;
	minThickness		0.1;
	nGrow		0;
	featureAngle		100;
	nRelaxIter		3;
	nSmoothSurfaceNormals		1;
	nSmoothThickness		10;
	nSmoothNormals		3;
	maxFaceThicknessRatio		0.5;
	maxThicknessToMedialRatio		0.3;
	minMedianAxisAngle		130;
	nBufferCellsNoExtrude		0;
	nLayerIter		50;
	nRelaxedIter		20;
	
}

meshQualityControls
{
	
	maxNonOrtho		60;
	maxBoundarySkewness		20;
	maxInternalSkewness		4;
	maxConcave		80;
	minFlatness		0.5;
	minVol		1E-13;
	minTetQuality		1E-15;
	minArea		-1;
	minTwist		0.02;
	minDeterminant		0.001;
	minFaceWeight		0.02;
	minVolRatio		0.01;
	minTriangleTwist		-1;
	nSmoothScale		4;
	errorReduction		0.75;
	relaxed
	{
		
		maxNonOrtho		75;
		
	}
	
	
}

debug		0;
mergeTolerance		1E-06;
